rcc1 MANUAL_rcc1_oplsaa.ff
                    3D
 Schrodinger Suite 2023-2.
324348  0  0  1  0            999 V2000
 24.9511    30.8947    24.6658    CT1    0    0    0    0    0    0    
 24.5142    29.8427    25.6872    CA1    0    0    0    0    0    0    
 25.2377    28.6572    25.8539    CA1    0    0    0    0    0    0    
 24.7629    27.6318    26.6802    CA1    0    0    0    0    0    0    
 25.5564    26.3371    26.8651    CT1    0    0    0    0    0    0    
 23.5712    27.8228    27.3828    CA1    0    0    0    0    0    0    
 22.8285    28.9982    27.2268    CA1    0    0    0    0    0    0    
 21.4282    29.0978    27.8339    CT1    0    0    0    0    0    0    
 23.3195    30.0130    26.3961    CA1    0    0    0    0    0    0    
 28.4675    33.8971    23.2108    CT1    0    0    0    0    0    0    
 28.4904    33.2635    21.8145    CA1    0    0    0    0    0    0    
 27.3800    33.4030    20.9762    CA1    0    0    0    0    0    0    
 27.2887    32.6950    19.7763    CA1    0    0    0    0    0    0    
 25.9455    32.6053    19.0558    CT1    0    0    0    0    0    0    
 28.3519    31.8738    19.3885    CA1    0    0    0    0    0    0    
 29.4727    31.7210    20.2095    CA1    0    0    0    0    0    0    
 30.5068    30.6474    19.8767    CT1    0    0    0    0    0    0    
 29.5336    32.4149    21.4243    CA1    0    0    0    0    0    0    
 21.7248    27.4173    24.4794    CT1    0    0    0    0    0    0    
 21.8248    27.3165    22.9595    CA1    0    0    0    0    0    0    
 21.9906    26.0731    22.3399    CA1    0    0    0    0    0    0    
 22.1119    25.9786    20.9480    CA1    0    0    0    0    0    0    
 22.4646    24.6397    20.2988    CT1    0    0    0    0    0    0    
 22.0250    27.1428    20.1762    CA1    0    0    0    0    0    0    
 21.8630    28.3936    20.7806    CA1    0    0    0    0    0    0    
 22.0187    29.6690    19.9530    CT1    0    0    0    0    0    0    
 21.7598    28.4711    22.1721    CA1    0    0    0    0    0    0    
 28.0444    23.2873    23.8502    CT1    0    0    0    0    0    0    
 28.4115    23.4152    22.3764    CA1    0    0    0    0    0    0    
 29.4223    24.2993    21.9898    CA1    0    0    0    0    0    0    
 29.6235    24.6141    20.6425    CA1    0    0    0    0    0    0    
 30.6195    25.7070    20.2532    CT1    0    0    0    0    0    0    
 28.7909    24.0350    19.6781    CA1    0    0    0    0    0    0    
 27.7905    23.1253    20.0462    CA1    0    0    0    0    0    0    
 26.8158    22.5863    18.9967    CT1    0    0    0    0    0    0    
 27.6070    22.8236    21.3986    CA1    0    0    0    0    0    0    
 19.0683    44.2619    24.7003    CT7    0    0    0    0    0    0    
 19.3197    42.9074    25.1626    NI1    0    3    0    0    0    0    
 18.3639    41.9838    25.5601    CI1    0    0    0    0    0    0    
 19.0198    40.8214    25.9587    CI2    0    0    0    0    0    0    
 20.3855    41.0369    25.8226    NI2    0    0    0    0    0    0    
 21.4457    40.0802    26.1243    CT2    0    0    0    0    0    0    
 21.5440    38.9915    25.0357    CT3    0    0    0    0    0    0    
 22.6632    37.9780    25.3111    CT4    0    0    0    0    0    0    
 22.6697    37.0210    24.2539    OY    0    0    0    0    0    0    
 23.6050    36.0041    24.2664    CA2    0    0    0    0    0    0    
 24.5710    35.8277    25.2684    CA    0    0    0    0    0    0    
 25.4749    34.7707    25.1924    CA    0    0    0    0    0    0    
 25.4315    33.8797    24.1145    CA    0    0    0    0    0    0    
 26.4149    32.7032    24.0165    CT5    0    0    0    0    0    0    
 26.1616    31.6624    25.0117    NT    0    0    2    0    0    0    
 27.3848    30.8695    24.9279    CT6    0    0    0    0    0    0    
 28.5063    31.8690    24.6505    CT6    0    0    0    0    0    0    
 27.8070    33.0870    24.2558    NT    0    0    1    0    0    0    
 24.4622    34.0503    23.1220    CA    0    0    0    0    0    0    
 23.5593    35.1076    23.1994    CA    0    0    0    0    0    0    
 20.5570    42.3206    25.3380    CR    0    0    0    0    0    0    
 10.5594    18.8540    31.3037    CT7    0    0    0    0    0    0    
 10.9347    19.9941    30.4846    NI1    0    3    0    0    0    0    
 10.2541    21.1994    30.3927    CI1    0    0    0    0    0    0    
 10.9609    22.0349    29.5311    CI2    0    0    0    0    0    0    
 12.0864    21.3446    29.0989    NI2    0    0    0    0    0    0    
 13.1170    21.8503    28.1976    CT2    0    0    0    0    0    0    
 14.0496    22.8464    28.9172    CT3    0    0    0    0    0    0    
 15.1500    23.3981    28.0005    CT4    0    0    0    0    0    0    
 15.9443    24.3083    28.7580    OY    0    0    0    0    0    0    
 16.9851    24.9755    28.1414    CA2    0    0    0    0    0    0    
 17.3543    24.8043    26.8000    CA    0    0    0    0    0    0    
 18.4178    25.5289    26.2663    CA    0    0    0    0    0    0    
 19.1257    26.4495    27.0528    CA    0    0    0    0    0    0    
 20.3291    27.2405    26.4870    CT5    0    0    0    0    0    0    
 20.3321    28.6357    26.9584    NT    0    0    2    0    0    0    
 19.9577    29.5012    25.8459    CT6    0    0    0    0    0    0    
 19.5510    28.5079    24.7612    CT6    0    0    0    0    0    0    
 20.3537    27.3121    25.0146    NT    0    0    1    0    0    0    
 18.7644    26.5947    28.3987    CA    0    0    0    0    0    0    
 17.7020    25.8699    28.9325    CA    0    0    0    0    0    0    
 12.0647    20.0987    29.6983    CR    0    0    0    0    0    0    
 24.7284    13.3092    32.9231    CT7    0    0    0    0    0    0    
 24.2886    14.6226    32.4835    NI1    0    3    0    0    0    0    
 23.5640    15.5394    33.2311    CI1    0    0    0    0    0    0    
 23.3207    16.6563    32.4351    CI2    0    0    0    0    0    0    
 23.8825    16.4183    31.1869    NI2    0    0    0    0    0    0    
 23.8679    17.3272    30.0450    CT2    0    0    0    0    0    0    
 24.8704    18.4838    30.2377    CT3    0    0    0    0    0    0    
 24.8975    19.4506    29.0459    CT4    0    0    0    0    0    0    
 25.8524    20.4722    29.3241    OY    0    0    0    0    0    0    
 26.0794    21.4617    28.3872    CA2    0    0    0    0    0    0    
 25.4189    21.5547    27.1540    CA    0    0    0    0    0    0    
 25.7191    22.5905    26.2721    CA    0    0    0    0    0    0    
 26.6855    23.5505    26.6026    CA    0    0    0    0    0    0    
 27.0637    24.7293    25.6726    CT5    0    0    0    0    0    0    
 26.0916    25.8156    25.6023    NT    0    0    1    0    0    0    
 25.1017    25.3988    24.6150    CT6    0    0    0    0    0    0    
 25.9061    24.5719    23.6136    CT6    0    0    0    0    0    0    
 27.2141    24.4280    24.2533    NT    0    0    2    0    0    0    
 27.3362    23.4543    27.8366    CA    0    0    0    0    0    0    
 27.0352    22.4194    28.7180    CA    0    0    0    0    0    0    
 24.4692    15.1668    31.2276    CR    0    0    0    0    0    0    
 18.4975    31.8762    6.7451    CT7    0    0    0    0    0    0    
 19.5358    32.2898    7.6738    NI1    0    3    0    0    0    0    
 20.0860    33.5590    7.7794    CI1    0    0    0    0    0    0    
 21.0203    33.5448    8.8124    CI2    0    0    0    0    0    0    
 21.0381    32.2643    9.3509    NI2    0    0    0    0    0    0    
 21.8598    31.8078    10.4674    CT2    0    0    0    0    0    0    
 21.3093    32.3213    11.8141    CT3    0    0    0    0    0    0    
 22.1442    31.8518    13.0133    CT4    0    0    0    0    0    0    
 21.5570    32.3809    14.2001    OY    0    0    0    0    0    0    
 22.1403    32.1109    15.4231    CA2    0    0    0    0    0    0    
 23.2891    31.3268    15.5989    CA    0    0    0    0    0    0    
 23.8053    31.1123    16.8747    CA    0    0    0    0    0    0    
 23.1873    31.6783    17.9982    CA    0    0    0    0    0    0    
 23.7046    31.4730    19.4423    CT5    0    0    0    0    0    0    
 25.1528    31.5124    19.6361    NT    0    0    1    0    0    0    
 25.6745    30.1578    19.4595    CT6    0    0    0    0    0    0    
 24.4394    29.2736    19.5616    CT6    0    0    0    0    0    0    
 23.3964    30.1742    20.0383    NT    0    0    2    0    0    0    
 22.0390    32.4553    17.8160    CA    0    0    0    0    0    0    
 21.5229    32.6686    16.5405    CA    0    0    0    0    0    0    
 20.1162    31.5071    8.6517    CR    0    0    0    0    0    0    
 44.1772    27.2684    22.5889    CT7    0    0    0    0    0    0    
 42.9343    28.0210    22.6069    NI1    0    3    0    0    0    0    
 42.7995    29.3894    22.4232    CI1    0    0    0    0    0    0    
 41.4508    29.7151    22.5454    CI2    0    0    0    0    0    0    
 40.7551    28.5451    22.8230    NI2    0    0    0    0    0    0    
 39.3146    28.4231    23.0233    CT2    0    0    0    0    0    0    
 38.5542    28.5116    21.6840    CT3    0    0    0    0    0    0    
 37.0347    28.3788    21.8546    CT4    0    0    0    0    0    0    
 36.4325    28.4705    20.5654    OY    0    0    0    0    0    0    
 35.0587    28.3817    20.4510    CA2    0    0    0    0    0    0    
 34.1816    28.2048    21.5303    CA    0    0    0    0    0    0    
 32.8076    28.1274    21.3143    CA    0    0    0    0    0    0    
 32.2833    28.2223    20.0176    CA    0    0    0    0    0    0    
 30.7663    28.1546    19.7099    CT5    0    0    0    0    0    0    
 29.9825    29.3024    20.1610    NT    0    0    1    0    0    0    
 29.6357    29.0268    21.5503    CT6    0    0    0    0    0    0    
 29.5561    27.5023    21.6230    CT6    0    0    0    0    0    0    
 30.0187    27.0488    20.3112    NT    0    0    2    0    0    0    
 33.1641    28.4010    18.9462    CA    0    0    0    0    0    0    
 34.5373    28.4788    19.1630    CA    0    0    0    0    0    0    
 41.6758    27.5141    22.8624    CR    0    0    0    0    0    0    
 17.5426    12.2089    15.6673    CT7    0    0    0    0    0    0    
 17.5464    13.5952    16.1030    NI1    0    3    0    0    0    0    
 16.5760    14.2164    16.8757    CI1    0    0    0    0    0    0    
 16.9398    15.5505    17.0431    CI2    0    0    0    0    0    0    
 18.1297    15.7553    16.3559    NI2    0    0    0    0    0    0    
 18.8721    17.0088    16.2675    CT2    0    0    0    0    0    0    
 19.6214    17.3092    17.5821    CT3    0    0    0    0    0    0    
 20.4310    18.6115    17.5183    CT4    0    0    0    0    0    0    
 21.0838    18.7928    18.7731    OY    0    0    0    0    0    0    
 21.8993    19.8922    18.9600    CA2    0    0    0    0    0    0    
 22.1311    20.8815    17.9929    CA    0    0    0    0    0    0    
 22.9748    21.9531    18.2748    CA    0    0    0    0    0    0    
 23.5989    22.0523    19.5237    CA    0    0    0    0    0    0    
 24.5314    23.2282    19.8587    CT5    0    0    0    0    0    0    
 23.8932    24.5507    19.9463    NT    0    0    1    0    0    0    
 24.3166    25.3020    18.7725    CT6    0    0    0    0    0    0    
 25.7219    24.7885    18.5375    CT6    0    0    0    0    0    0    
 25.5814    23.3748    18.8452    NT    0    0    1    0    0    0    
 23.3644    21.0683    20.4875    CA    0    0    0    0    0    0    
 22.5202    19.9977    20.2038    CA    0    0    0    0    0    0    
 18.4893    14.5505    15.7803    CR    0    0    0    0    0    0    
 24.1281    31.6051    24.5715    HC    0    0    0    0    0    0    
 25.0380    30.4226    23.6844    HC    0    0    0    0    0    0    
 26.1502    28.4974    25.2989    HA    0    0    0    0    0    0    
 26.3769    26.5480    27.5529    HC    0    0    0    0    0    0    
 24.9399    25.5845    27.3608    HC    0    0    0    0    0    0    
 23.1928    27.0332    28.0173    HA    0    0    0    0    0    0    
 21.4013    28.5021    28.7477    HC    0    0    0    0    0    0    
 21.2346    30.1308    28.1286    HC    0    0    0    0    0    0    
 22.7392    30.9140    26.2553    HA    0    0    0    0    0    0    
 27.9526    34.8575    23.1493    HC    0    0    0    0    0    0    
 29.4899    34.1107    23.5275    HC    0    0    0    0    0    0    
 26.5408    33.9997    21.3020    HA    0    0    0    0    0    0    
 25.4059    33.5456    19.1825    HC    0    0    0    0    0    0    
 26.0920    32.4444    17.9865    HC    0    0    0    0    0    0    
 28.2659    31.2717    18.4947    HA    0    0    0    0    0    0    
 30.7592    30.7178    18.8172    HC    0    0    0    0    0    0    
 31.4241    30.8212    20.4427    HC    0    0    0    0    0    0    
 30.3725    32.2568    22.0875    HA    0    0    0    0    0    0    
 22.3245    26.6124    24.9072    HC    0    0    0    0    0    0    
 22.1863    28.3532    24.7804    HC    0    0    0    0    0    0    
 22.0658    25.1818    22.9472    HA    0    0    0    0    0    0    
 22.2315    23.8501    21.0155    HC    0    0    0    0    0    0    
 21.8376    24.4656    19.4224    HC    0    0    0    0    0    0    
 22.1463    27.0846    19.1041    HA    0    0    0    0    0    0    
 21.7538    29.4762    18.9115    HC    0    0    0    0    0    0    
 21.3351    30.4299    20.3335    HC    0    0    0    0    0    0    
 21.6829    29.4408    22.6439    HA    0    0    0    0    0    0    
 27.5172    22.3501    24.0366    HC    0    0    0    0    0    0    
 28.9592    23.2795    24.4455    HC    0    0    0    0    0    0    
 30.0090    24.7957    22.7500    HA    0    0    0    0    0    0    
 31.4914    25.6575    20.9078    HC    0    0    0    0    0    0    
 30.9648    25.5220    19.2343    HC    0    0    0    0    0    0    
 28.9013    24.3188    18.6406    HA    0    0    0    0    0    0    
 27.3200    22.5657    18.0290    HC    0    0    0    0    0    0    
 26.5539    21.5541    19.2363    HC    0    0    0    0    0    0    
 26.8005    22.1693    21.6974    HA    0    0    0    0    0    0    
 19.9098    44.9068    24.9536    HC    0    0    0    0    0    0    
 18.1588    44.6498    25.1590    HC    0    0    0    0    0    0    
 18.9436    44.2493    23.6180    HC    0    0    0    0    0    0    
 17.3088    42.2307    25.5215    HA    0    0    0    0    0    0    
 18.6439    39.8733    26.3289    HA    0    0    0    0    0    0    
 22.3899    40.6194    26.2191    HC    0    0    0    0    0    0    
 21.2500    39.6457    27.1060    HC    0    0    0    0    0    0    
 20.5965    38.4562    24.9563    HC    0    0    0    0    0    0    
 21.7201    39.4560    24.0639    HC    0    0    0    0    0    0    
 22.4898    37.4822    26.2685    HC    0    0    0    0    0    0    
 23.6254    38.4922    25.3622    HC    0    0    0    0    0    0    
 24.6360    36.4968    26.1127    HA    0    0    0    0    0    0    
 26.2142    34.6376    25.9695    HA    0    0    0    0    0    0    
 26.3265    32.2566    23.0218    HC    0    0    0    0    0    0    
 27.3353    30.1272    24.1281    HC    0    0    0    0    0    0    
 27.5602    30.3125    25.8493    HC    0    0    0    0    0    0    
 29.0700    32.0348    25.5695    HC    0    0    0    0    0    0    
 29.1726    31.4612    23.8913    HC    0    0    0    0    0    0    
 24.4063    33.3628    22.2889    HA    0    0    0    0    0    0    
 22.8159    35.2334    22.4257    HA    0    0    0    0    0    0    
 21.5070    42.7926    25.1256    HA    0    0    0    0    0    0    
 11.4480    18.2977    31.6020    HC    0    0    0    0    0    0    
 9.9093    18.1998    30.7234    HC    0    0    0    0    0    0    
 10.0242    19.1922    32.1909    HC    0    0    0    0    0    0    
 9.3330    21.3562    30.9431    HA    0    0    0    0    0    0    
 10.7701    23.0482    29.1930    HA    0    0    0    0    0    0    
 13.6834    21.0062    27.8003    HC    0    0    0    0    0    0    
 12.6274    22.3123    27.3387    HC    0    0    0    0    0    0    
 13.4696    23.6825    29.3113    HC    0    0    0    0    0    0    
 14.5160    22.3608    29.7762    HC    0    0    0    0    0    0    
 14.6994    23.9080    27.1462    HC    0    0    0    0    0    0    
 15.7682    22.5808    27.6231    HC    0    0    0    0    0    0    
 16.8317    24.1130    26.1566    HA    0    0    0    0    0    0    
 18.6865    25.3701    25.2318    HA    0    0    0    0    0    0    
 21.1990    26.6925    26.8542    HC    0    0    0    0    0    0    
 20.7727    30.1234    25.4778    HC    0    0    0    0    0    0    
 19.1062    30.1366    26.0926    HC    0    0    0    0    0    0    
 18.4863    28.2679    24.7681    HC    0    0    0    0    0    0    
 19.7193    28.9358    23.7740    HC    0    0    0    0    0    0    
 19.3053    27.2778    29.0373    HA    0    0    0    0    0    0    
 17.4316    26.0030    29.9701    HA    0    0    0    0    0    0    
 12.8116    19.3260    29.5736    HA    0    0    0    0    0    0    
 25.7136    13.4001    33.3794    HC    0    0    0    0    0    0    
 24.7925    12.6309    32.0722    HC    0    0    0    0    0    0    
 24.0305    12.9091    33.6585    HC    0    0    0    0    0    0    
 23.2903    15.3209    34.2573    HA    0    0    0    0    0    0    
 22.7994    17.5859    32.6386    HA    0    0    0    0    0    0    
 24.0992    16.7608    29.1412    HC    0    0    0    0    0    0    
 22.8507    17.6993    29.9123    HC    0    0    0    0    0    0    
 24.6239    19.0451    31.1403    HC    0    0    0    0    0    0    
 25.8737    18.0811    30.3877    HC    0    0    0    0    0    0    
 23.9081    19.8883    28.8972    HC    0    0    0    0    0    0    
 25.1729    18.9119    28.1367    HC    0    0    0    0    0    0    
 24.6705    20.8340    26.8616    HA    0    0    0    0    0    0    
 25.1928    22.6308    25.3331    HA    0    0    0    0    0    0    
 28.0127    25.1372    26.0298    HC    0    0    0    0    0    0    
 24.6102    26.2578    24.1568    HC    0    0    0    0    0    0    
 24.3000    24.8183    25.0746    HC    0    0    0    0    0    0    
 25.4193    23.6165    23.4155    HC    0    0    0    0    0    0    
 25.9994    25.0926    22.6592    HC    0    0    0    0    0    0    
 28.0811    24.1850    28.1189    HA    0    0    0    0    0    0    
 27.5484    22.3583    29.6669    HA    0    0    0    0    0    0    
 24.9906    14.6880    30.4095    HA    0    0    0    0    0    0    
 18.9649    31.5155    5.8293    HC    0    0    0    0    0    0    
 17.8521    32.7215    6.5066    HC    0    0    0    0    0    0    
 17.9030    31.0731    7.1806    HC    0    0    0    0    0    0    
 19.7682    34.3550    7.1153    HA    0    0    0    0    0    0    
 21.6643    34.3215    9.2117    HA    0    0    0    0    0    0    
 21.8974    30.7172    10.4544    HC    0    0    0    0    0    0    
 22.8847    32.1439    10.3018    HC    0    0    0    0    0    0    
 21.2783    33.4120    11.8131    HC    0    0    0    0    0    0    
 20.2804    31.9821    11.9458    HC    0    0    0    0    0    0    
 23.1728    32.2041    12.9103    HC    0    0    0    0    0    0    
 22.1594    30.7605    13.0531    HC    0    0    0    0    0    0    
 23.7957    30.8756    14.7594    HA    0    0    0    0    0    0    
 24.6902    30.5057    16.9740    HA    0    0    0    0    0    0    
 23.2624    32.2557    20.0637    HC    0    0    0    0    0    0    
 26.3881    29.9157    20.2486    HC    0    0    0    0    0    0    
 26.1747    30.0095    18.5019    HC    0    0    0    0    0    0    
 24.1704    28.8298    18.6016    HC    0    0    0    0    0    0    
 24.5807    28.4292    20.2376    HC    0    0    0    0    0    0    
 21.5398    32.8977    18.6665    HA    0    0    0    0    0    0    
 20.6358    33.2727    16.4163    HA    0    0    0    0    0    0    
 44.0965    26.3954    23.2367    HC    0    0    0    0    0    0    
 45.0000    27.8991    22.9254    HC    0    0    0    0    0    0    
 44.3759    26.9373    21.5701    HC    0    0    0    0    0    0    
 43.6673    30.0068    22.2192    HA    0    0    0    0    0    0    
 40.9288    30.6632    22.4670    HA    0    0    0    0    0    0    
 39.1072    27.4761    23.5248    HC    0    0    0    0    0    0    
 38.9949    29.2039    23.7154    HC    0    0    0    0    0    0    
 38.7707    29.4621    21.1937    HC    0    0    0    0    0    0    
 38.9035    27.7282    21.0091    HC    0    0    0    0    0    0    
 36.6623    29.1740    22.5039    HC    0    0    0    0    0    0    
 36.7938    27.4192    22.3171    HC    0    0    0    0    0    0    
 34.5458    28.1256    22.5432    HA    0    0    0    0    0    0    
 32.1638    27.9907    22.1671    HA    0    0    0    0    0    0    
 30.6578    28.0745    18.6253    HC    0    0    0    0    0    0    
 28.6990    29.5125    21.8277    HC    0    0    0    0    0    0    
 30.3854    29.4247    22.2360    HC    0    0    0    0    0    0    
 30.1699    27.1287    22.4431    HC    0    0    0    0    0    0    
 28.5313    27.1734    21.8027    HC    0    0    0    0    0    0    
 32.7868    28.4824    17.9366    HA    0    0    0    0    0    0    
 35.2044    28.6166    18.3243    HA    0    0    0    0    0    0    
 41.4500    26.4743    23.0582    HA    0    0    0    0    0    0    
 18.0643    12.1138    14.7149    HC    0    0    0    0    0    0    
 16.5175    11.8544    15.5601    HC    0    0    0    0    0    0    
 18.0532    11.6016    16.4140    HC    0    0    0    0    0    0    
 15.7202    13.6588    17.2395    HA    0    0    0    0    0    0    
 16.4628    16.3655    17.5775    HA    0    0    0    0    0    0    
 19.5690    16.9468    15.4299    HC    0    0    0    0    0    0    
 18.1728    17.8077    16.0157    HC    0    0    0    0    0    0    
 18.9128    17.3756    18.4092    HC    0    0    0    0    0    0    
 20.2971    16.4852    17.8182    HC    0    0    0    0    0    0    
 19.7675    19.4541    17.3123    HC    0    0    0    0    0    0    
 21.1671    18.5518    16.7137    HC    0    0    0    0    0    0    
 21.6684    20.8366    17.0188    HA    0    0    0    0    0    0    
 23.1500    22.7092    17.5232    HA    0    0    0    0    0    0    
 24.9711    23.0447    20.8395    HC    0    0    0    0    0    0    
 24.2943    26.3773    18.9399    HC    0    0    0    0    0    0    
 23.6593    25.1298    17.9181    HC    0    0    0    0    0    0    
 26.0861    24.9520    17.5226    HC    0    0    0    0    0    0    
 26.4407    25.2899    19.1873    HC    0    0    0    0    0    0    
 23.8353    21.1300    21.4584    HA    0    0    0    0    0    0    
 22.3459    19.2406    20.9547    HA    0    0    0    0    0    0    
 19.3698    14.3785    15.1757    HA    0    0    0    0    0    0    
 19.8843    30.4669    8.8374    HA    0    0    0    0    0    0    
  1  2  1  0  0  0
  1 51  1  0  0  0
  1163  1  0  0  0
  1164  1  0  0  0
  2  3  2  0  0  0
  2  9  1  0  0  0
  3  4  1  0  0  0
  3165  1  0  0  0
  4  5  1  0  0  0
  4  6  2  0  0  0
  5166  1  0  0  0
  5167  1  0  0  0
  5 93  1  0  0  0
  6168  1  0  0  0
  6  7  1  0  0  0
  7  8  1  0  0  0
  7  9  2  0  0  0
  8170  1  0  0  0
  8169  1  0  0  0
  8 72  1  0  0  0
  9171  1  0  0  0
 10173  1  0  0  0
 10 11  1  0  0  0
 10 54  1  0  0  0
 10172  1  0  0  0
 11 12  2  0  0  0
 11 18  1  0  0  0
 12174  1  0  0  0
 12 13  1  0  0  0
 13 14  1  0  0  0
 13 15  2  0  0  0
 14175  1  0  0  0
 14114  1  0  0  0
 14176  1  0  0  0
 15 16  1  0  0  0
 15177  1  0  0  0
 16 18  2  0  0  0
 16 17  1  0  0  0
 17179  1  0  0  0
 17135  1  0  0  0
 17178  1  0  0  0
 18180  1  0  0  0
 19182  1  0  0  0
 19181  1  0  0  0
 19 20  1  0  0  0
 19 75  1  0  0  0
 20 21  2  0  0  0
 20 27  1  0  0  0
 21183  1  0  0  0
 21 22  1  0  0  0
 22 23  1  0  0  0
 22 24  2  0  0  0
 23184  1  0  0  0
 23156  1  0  0  0
 23185  1  0  0  0
 24 25  1  0  0  0
 24186  1  0  0  0
 25 27  2  0  0  0
 25 26  1  0  0  0
 26117  1  0  0  0
 26188  1  0  0  0
 26187  1  0  0  0
 27189  1  0  0  0
 28190  1  0  0  0
 28 96  1  0  0  0
 28191  1  0  0  0
 28 29  1  0  0  0
 29 30  2  0  0  0
 29 36  1  0  0  0
 30192  1  0  0  0
 30 31  1  0  0  0
 31 32  1  0  0  0
 31 33  2  0  0  0
 32193  1  0  0  0
 32138  1  0  0  0
 32194  1  0  0  0
 33 34  1  0  0  0
 33195  1  0  0  0
 34 36  2  0  0  0
 34 35  1  0  0  0
 35197  1  0  0  0
 35159  1  0  0  0
 35196  1  0  0  0
 36198  1  0  0  0
 37 38  1  0  0  0
 37200  1  0  0  0
 37199  1  0  0  0
 37201  1  0  0  0
 38 39  1  0  0  0
 38 57  2  0  0  0
 39 40  2  0  0  0
 39202  1  0  0  0
 40203  1  0  0  0
 40 41  1  0  0  0
 41 42  1  0  0  0
 41 57  1  0  0  0
 42205  1  0  0  0
 42 43  1  0  0  0
 42204  1  0  0  0
 43206  1  0  0  0
 43 44  1  0  0  0
 43207  1  0  0  0
 44208  1  0  0  0
 44 45  1  0  0  0
 44209  1  0  0  0
 45 46  1  0  0  0
 46 47  2  0  0  0
 46 56  1  0  0  0
 47210  1  0  0  0
 47 48  1  0  0  0
 48211  1  0  0  0
 48 49  2  0  0  0
 49 50  1  0  0  0
 49 55  1  0  0  0
 50212  1  0  0  0
 50 51  1  0  0  0
 50 54  1  0  0  0
 51 52  1  0  0  0
 52213  1  0  0  0
 52214  1  0  0  0
 52 53  1  0  0  0
 53215  1  0  0  0
 53 54  1  0  0  0
 53216  1  0  0  0
 55 56  2  0  0  0
 55217  1  0  0  0
 56218  1  0  0  0
 57219  1  0  0  0
 58220  1  0  0  0
 58222  1  0  0  0
 58 59  1  0  0  0
 58221  1  0  0  0
 59 60  1  0  0  0
 59 78  2  0  0  0
 60223  1  0  0  0
 60 61  2  0  0  0
 61 62  1  0  0  0
 61224  1  0  0  0
 62 78  1  0  0  0
 62 63  1  0  0  0
 63 64  1  0  0  0
 63225  1  0  0  0
 63226  1  0  0  0
 64227  1  0  0  0
 64228  1  0  0  0
 64 65  1  0  0  0
 65 66  1  0  0  0
 65229  1  0  0  0
 65230  1  0  0  0
 66 67  1  0  0  0
 67 77  2  0  0  0
 67 68  1  0  0  0
 68 69  2  0  0  0
 68231  1  0  0  0
 69 70  1  0  0  0
 69232  1  0  0  0
 70 76  2  0  0  0
 70 71  1  0  0  0
 71 72  1  0  0  0
 71233  1  0  0  0
 71 75  1  0  0  0
 72 73  1  0  0  0
 73235  1  0  0  0
 73 74  1  0  0  0
 73234  1  0  0  0
 74236  1  0  0  0
 74 75  1  0  0  0
 74237  1  0  0  0
 76238  1  0  0  0
 76 77  1  0  0  0
 77239  1  0  0  0
 78240  1  0  0  0
 79241  1  0  0  0
 79243  1  0  0  0
 79 80  1  0  0  0
 79242  1  0  0  0
 80 81  1  0  0  0
 80 99  2  0  0  0
 81244  1  0  0  0
 81 82  2  0  0  0
 82245  1  0  0  0
 82 83  1  0  0  0
 83 99  1  0  0  0
 83 84  1  0  0  0
 84247  1  0  0  0
 84 85  1  0  0  0
 84246  1  0  0  0
 85249  1  0  0  0
 85248  1  0  0  0
 85 86  1  0  0  0
 86 87  1  0  0  0
 86250  1  0  0  0
 86251  1  0  0  0
 87 88  1  0  0  0
 88 89  2  0  0  0
 88 98  1  0  0  0
 89 90  1  0  0  0
 89252  1  0  0  0
 90 91  2  0  0  0
 90253  1  0  0  0
 91 97  1  0  0  0
 91 92  1  0  0  0
 92254  1  0  0  0
 92 93  1  0  0  0
 92 96  1  0  0  0
 93 94  1  0  0  0
 94256  1  0  0  0
 94 95  1  0  0  0
 94255  1  0  0  0
 95257  1  0  0  0
 95 96  1  0  0  0
 95258  1  0  0  0
 97 98  2  0  0  0
 97259  1  0  0  0
 98260  1  0  0  0
 99261  1  0  0  0
100264  1  0  0  0
100101  1  0  0  0
100262  1  0  0  0
100263  1  0  0  0
101102  1  0  0  0
101120  2  0  0  0
102103  2  0  0  0
102265  1  0  0  0
103104  1  0  0  0
103266  1  0  0  0
104105  1  0  0  0
104120  1  0  0  0
105268  1  0  0  0
105106  1  0  0  0
105267  1  0  0  0
106269  1  0  0  0
106107  1  0  0  0
106270  1  0  0  0
107271  1  0  0  0
107108  1  0  0  0
107272  1  0  0  0
108109  1  0  0  0
109110  2  0  0  0
109119  1  0  0  0
110111  1  0  0  0
110273  1  0  0  0
111274  1  0  0  0
111112  2  0  0  0
112113  1  0  0  0
112118  1  0  0  0
113114  1  0  0  0
113117  1  0  0  0
113275  1  0  0  0
114115  1  0  0  0
115276  1  0  0  0
115116  1  0  0  0
115277  1  0  0  0
116279  1  0  0  0
116117  1  0  0  0
116278  1  0  0  0
118280  1  0  0  0
118119  2  0  0  0
119281  1  0  0  0
120324  1  0  0  0
121282  1  0  0  0
121122  1  0  0  0
121283  1  0  0  0
121284  1  0  0  0
122141  2  0  0  0
122123  1  0  0  0
123124  2  0  0  0
123285  1  0  0  0
124125  1  0  0  0
124286  1  0  0  0
125126  1  0  0  0
125141  1  0  0  0
126288  1  0  0  0
126287  1  0  0  0
126127  1  0  0  0
127128  1  0  0  0
127289  1  0  0  0
127290  1  0  0  0
128291  1  0  0  0
128292  1  0  0  0
128129  1  0  0  0
129130  1  0  0  0
130131  2  0  0  0
130140  1  0  0  0
131293  1  0  0  0
131132  1  0  0  0
132294  1  0  0  0
132133  2  0  0  0
133134  1  0  0  0
133139  1  0  0  0
134295  1  0  0  0
134135  1  0  0  0
134138  1  0  0  0
135136  1  0  0  0
136137  1  0  0  0
136296  1  0  0  0
136297  1  0  0  0
137299  1  0  0  0
137298  1  0  0  0
137138  1  0  0  0
139140  2  0  0  0
139300  1  0  0  0
140301  1  0  0  0
141302  1  0  0  0
142303  1  0  0  0
142305  1  0  0  0
142143  1  0  0  0
142304  1  0  0  0
143162  2  0  0  0
143144  1  0  0  0
144145  2  0  0  0
144306  1  0  0  0
145146  1  0  0  0
145307  1  0  0  0
146147  1  0  0  0
146162  1  0  0  0
147148  1  0  0  0
147308  1  0  0  0
147309  1  0  0  0
148149  1  0  0  0
148310  1  0  0  0
148311  1  0  0  0
149150  1  0  0  0
149312  1  0  0  0
149313  1  0  0  0
150151  1  0  0  0
151161  2  0  0  0
151152  1  0  0  0
152153  2  0  0  0
152314  1  0  0  0
153154  1  0  0  0
153315  1  0  0  0
154155  1  0  0  0
154160  2  0  0  0
155316  1  0  0  0
155156  1  0  0  0
155159  1  0  0  0
156157  1  0  0  0
157317  1  0  0  0
157158  1  0  0  0
157318  1  0  0  0
158320  1  0  0  0
158159  1  0  0  0
158319  1  0  0  0
160321  1  0  0  0
160161  1  0  0  0
161322  1  0  0  0
162323  1  0  0  0
M  CHG  6  38   1  59   1  80   1 101   1 122   1 143   1
M  END
> <Source File Index>
1

> <subgroup collapsed>
0

> <Minimization Converged-S-OPLS>
1

> <Bend Energy-S-OPLS>
432.272338867188

> <Electrostatic Energy-S-OPLS>
1620.49633789062

> <Improper Torsional Energy-S-OPLS>
7.87942028045654

> <Potential Energy-S-OPLS>
541.269897460938

> <RMS Derivative-S-OPLS>
0.0472450293600559

> <Solvation Energy-S-OPLS>
-2439.5458984375

> <Stretch Energy-S-OPLS>
89.9672164916992

> <Torsional Energy-S-OPLS>
440.14453125

> <Van der Waal Energy-S-OPLS>
390.055877685547

> <Source File>
mmod_mini_6-out.maegz

> <Source Path>
/Users/austin/mmod_mini_6

> <entry id>
24

> <entry name>
simbox.1

> <job name>
mmod_mini_6

> <subgroup title>
mmod_mini_6-out

> <subgroupid>
mmod_mini_6-out

$$$$
